     2
Dimensions = 3; PeriodicDimensions = 3; BoxShape = parallelepiped; Lengths [A] = [   3.809201,   3.809201,   3.809201]; LatticeVectors [A] =[    0.000000    2.693512    2.693512],[    2.693512    0.000000    2.693512],[    2.693512    2.693512    0.000000]
Si                 0.000000    0.000000    0.000000
Si                 1.346756    1.346756    1.346756
